17
C5H12
C          1.23923        1.46892       -1.23930
C          1.24920        0.57161        0.00000
C         -0.00000       -0.31179       -0.00000
C         -1.24920        0.57161       -0.00000
C         -1.23923        1.46892        1.23930
H          1.23217        0.84960       -2.13625
H          0.34926        2.09811       -1.22516
H          2.12917        2.09831       -1.23936
H          2.13917       -0.05758       -0.01415
H          1.25625        1.19094        0.89694
H         -0.00000       -0.94109       -0.89000
H         -0.00000       -0.94109        0.89000
H         -1.25625        1.19094       -0.89694
H         -2.13917       -0.05758        0.01415
H         -1.23217        0.84960        2.13625
H         -0.34926        2.09811        1.22516
H         -2.12917        2.09831        1.23936
17
C5H12
C          1.25904        1.44091        1.25912
C          1.24920        0.57161        0.00000
C         -0.00000       -0.31179       -0.00000
C         -1.24920        0.57161       -0.00000
C         -1.25904        1.44091       -1.25912
H          0.36907        2.07009        1.27320
H          1.26610        0.80162        2.14194
H          2.14898        2.07029        1.25918
H          1.24214        1.21089       -0.88283
H          2.13917       -0.05758       -0.01408
H         -0.00000       -0.94109       -0.89000
H         -0.00000       -0.94109        0.89000
H         -2.13917       -0.05758        0.01408
H         -1.24214        1.21089        0.88283
H         -0.36907        2.07009       -1.27320
H         -1.26610        0.80162       -2.14194
H         -2.14898        2.07029       -1.25918
17
C5H12
C          2.49842       -0.31168       -0.01981
C          1.24920        0.57161        0.00000
C         -0.00000       -0.31179       -0.00000
C         -1.24920        0.57161       -0.00000
C         -2.49842       -0.31168        0.01981
H          2.50545       -0.95092        0.86305
H          2.49134       -0.93096       -0.91678
H          3.38842        0.31762       -0.01981
H          1.25629        1.19089        0.89697
H          1.24217        1.21085       -0.88286
H         -0.00000       -0.94109       -0.89000
H         -0.00000       -0.94109        0.89000
H         -1.24217        1.21085        0.88286
H         -1.25629        1.19089       -0.89697
H         -2.50545       -0.95092       -0.86305
H         -2.49134       -0.93096        0.91678
H         -3.38842        0.31762        0.01981
17
C5H12
C          2.49842       -0.31168       -0.01981
C          1.24920        0.57161        0.00000
C         -0.00000       -0.31179       -0.00000
C         -1.24920        0.57161       -0.00000
C         -1.25904        1.44091       -1.25912
H          2.50545       -0.95092        0.86305
H          2.49134       -0.93096       -0.91678
H          3.38842        0.31762       -0.01981
H          1.25629        1.19089        0.89697
H          1.24217        1.21085       -0.88286
H         -0.00000       -0.94109       -0.89000
H         -0.00000       -0.94109        0.89000
H         -2.13917       -0.05758        0.01408
H         -1.24214        1.21089        0.88283
H         -0.36907        2.07009       -1.27320
H         -1.26610        0.80162       -2.14194
H         -2.14898        2.07029       -1.25918
17
C5H12
C          1.23923        1.46892       -1.23930
C          1.24920        0.57161        0.00000
C         -0.00000       -0.31179       -0.00000
C         -1.24920        0.57161       -0.00000
C         -2.49842       -0.31168        0.01981
H          1.23217        0.84960       -2.13625
H          0.34926        2.09811       -1.22516
H          2.12917        2.09831       -1.23936
H          2.13917       -0.05758       -0.01415
H          1.25625        1.19094        0.89694
H         -0.00000       -0.94109       -0.89000
H         -0.00000       -0.94109        0.89000
H         -1.24217        1.21085        0.88286
H         -1.25629        1.19089       -0.89697
H         -2.50545       -0.95092       -0.86305
H         -2.49134       -0.93096        0.91678
H         -3.38842        0.31762        0.01981
17
C5H12
C          2.49842       -0.31168       -0.01981
C          1.24920        0.57161        0.00000
C         -0.00000       -0.31179       -0.00000
C         -1.24920        0.57161       -0.00000
C         -1.23923        1.46892        1.23930
H          2.50545       -0.95092        0.86305
H          2.49134       -0.93096       -0.91678
H          3.38842        0.31762       -0.01981
H          1.25629        1.19089        0.89697
H          1.24217        1.21085       -0.88286
H         -0.00000       -0.94109       -0.89000
H         -0.00000       -0.94109        0.89000
H         -1.25625        1.19094       -0.89694
H         -2.13917       -0.05758        0.01415
H         -1.23217        0.84960        2.13625
H         -0.34926        2.09811        1.22516
H         -2.12917        2.09831        1.23936
17
C5H12
C          1.25904        1.44091        1.25912
C          1.24920        0.57161        0.00000
C         -0.00000       -0.31179       -0.00000
C         -1.24920        0.57161       -0.00000
C         -2.49842       -0.31168        0.01981
H          0.36907        2.07009        1.27320
H          1.26610        0.80162        2.14194
H          2.14898        2.07029        1.25918
H          1.24214        1.21089       -0.88283
H          2.13917       -0.05758       -0.01408
H         -0.00000       -0.94109       -0.89000
H         -0.00000       -0.94109        0.89000
H         -1.24217        1.21085        0.88286
H         -1.25629        1.19089       -0.89697
H         -2.50545       -0.95092       -0.86305
H         -2.49134       -0.93096        0.91678
H         -3.38842        0.31762        0.01981
